/*--------------------------------*- C++ -*----------------------------------*\
| =========                 |                                                 |
| \\      /  F ield         | OpenFOAM: The Open Source CFD Toolbox           |
|  \\    /   O peration     |                                                 |
|   \\  /    A nd           | Copyright (C) 2018 Ehsan Madadi-Kandjani        |
|    \\/     M anipulation  |                                                 |
\*---------------------------------------------------------------------------*/
FoamFile
{
    version     2.0;
    format    ascii;
    class       dictionary;
    object      blockMeshDict;
}
// * * * * * * * * * * * * * * * * * * * * * * * * * * * * * * * * * * * * * //











// Returns a zero array


// Returns a zero array with commas in the middle of it


// Returns a linear  array with commas (initial point, last point, number of segments, c)

  
// Returns a y_t with commas (arrayX, number of segments, t, c)


// Returns a y_c with commas (arrayX, number of segments, m, p, c)


// Returns a theta with commas (arrayX, number of segments, m, p, c)

      
// Returns a xu with commas (arrayX, arrayYt, arrayTheta, number of segments)


// Returns a yu with commas (arrayYc, arrayYt, arrayTheta, number of segments)

      
// Returns a xl with commas (arrayX, arrayYt, arrayTheta, number of segments)


// Returns a yl with commas (arrayYc, arrayYt, arrayTheta, number of segments)

      
// Include angle of attack (arrayXu, arrayYu, alpha, number of segments)

      

      
// Include angle of attack (arrayXl, arrayYl, alpha, number of segments)

      

      
// Xu with comma to obtain Cmax (arrayXu, arrayYu, alpha, number of segments)



      
// Include angle of attack (arrayXl, arrayYl, alpha, number of segments)

      

      
// Returns the index of maximum array (Yc, Yt, p, number of segments)

      

      


      
// * * * * * * * * * * * * * * * * * * * * * * * * * * * * * * * * * * * * * //

convertToMeters 1.0;

//NACA airfoil geometry

//Chord length


//Angle of attack (in radian)


//NACA digits





//Mesh

//Height of mesh in y direction


//Length of downstream


//Foil depth in z direction perpendicular to x-y surface


//Scale factor (the mesh is normalized to have chord length equal to one)


//Number of cells and points at each direction and element

//Number of cells in y direction


//Number of cells in downstream


//Number of cells in z direction


//Number of meshes on the front part of airfoil edges p8-p9 and p8-p10b TODO calc it based on number of elements on the spline


//Number of meshes on the back part of airfoil edges p9-p11 and p10-p11 TODO calc it based on number of elements on the spline


//Number of interpolation points along the airfoil for defining the splines


//Cell expansion ratios

//Expansion ratio in y direction


//Expansion ratio in downstream side


//Expansion ratio in inlet


// Base z


// Depth of airfoil


// Front z


// m,p, and t values for the airfoil




// Calculate x array


// Calculate yt array


// Calculate camber


// Calculate theta


// Calculate upper surface x components


// Calculate upper surface y components


// Calculate lower surface x components


// Calculate lower surface y components







// define Cmax


// Move the airfoil





























//Define the points for the inlet arc allocation


















// * * * * * * * * * * * * * * * * * * * * * * * * * * * * * * * * * * * * * //



// * * * * * * * * * * * * * * * * * * * * * * * * * * * * * * * * * * * * * //

vertices
(
    (-7.6024731733586 0 0) // Vertex p00b = 0 
    (0.397666505293415 -8 0) // Vertex p01b = 1 
    (1.00016652628731 -8 0) // Vertex p02b = 2 
    (16.0 -8 0) // Vertex p03b = 3 
    (16.0 -0.0012489471548601 0) // Vertex p04b = 4 
    (16.0 8.0 0) // Vertex p05b = 5 
    (1.00016652628731 8.0 0) // Vertex p06b = 6 
    (0.397526826641395 8.0 0) // Vertex p07b = 7 
    (0 0 0) // Vertex p08b = 8 
    (0.397526826641395 0.0981172569863477 0) // Vertex p09b = 9 
    (0.397666505293415 -0.0181201449935839 0) // Vertex p10b = 10 
    (1.00016652628731 -0.0012489471548601 0) // Vertex p11b = 11 
    
    (-7.6024731733586 0 0.01) // Vertex p00t = 12 
    (0.397666505293415 -8 0.01) // Vertex p01t = 13 
    (1.00016652628731 -8 0.01) // Vertex p02t = 14 
    (16.0 -8 0.01) // Vertex p03t = 15 
    (16.0 -0.0012489471548601 0.01) // Vertex p04t = 16 
    (16.0 8.0 0.01) // Vertex p05t = 17 
    (1.00016652628731 8.0 0.01) // Vertex p06t = 18 
    (0.397526826641395 8.0 0.01) // Vertex p07t = 19 
    (0 0 0.01) // Vertex p08t = 20 
    (0.397526826641395 0.0981172569863477 0.01) // Vertex p09t = 21 
    (0.397666505293415 -0.0181201449935839 0.01) // Vertex p10t = 22 
    (1.00016652628731 -0.0012489471548601 0.01) // Vertex p11t = 23 
);

blocks
(
    //B0
    hex (0 1 10 8 12 13 22 20)
    square
    (12 50 1)
    simpleGrading (1 1 1)
    
    //B1
    hex (1 2 11 10 13 14 23 22)
    square
    (10 50 1)
    simpleGrading (1 1 1)
    
    //B2
    hex (2 3 4 11 14 15 16 23)
    square
    (90 50 1)
    simpleGrading (1 1 1)
    
    //B3
    hex (11 4 5 6 23 16 17 18)
    square
    (90 50 1)
    simpleGrading (1 1 1)
    
    //B4
    hex (9 11 6 7 21 23 18 19)
    square
    (10 50 1)
    simpleGrading (1 1 1)
    
    //B5
    hex (8 9 7 0 20 21 19 12)
    square
    (12 50 1)
    simpleGrading (1 1 1)
);

edges
(
    //Inlet arc
    arc 0 7 (-5.25932742285099 5.65685424949238 0)
    arc 0 1 (-5.25932742285099 -5.65685424949238 0)

    arc 12 19 (-5.25932742285099 5.65685424949238 0.01)
    arc 12 13 (-5.25932742285099 -5.65685424949238 0.01)
    
    //Airfoil surface spline
    spline 8 10 
             (( 0.000801956142897183 -0.00270253919376955 0 ) ( 0.00209749941618884 -0.00526687018828697 0 ) ( 0.00388372134450206 -0.00769298560585465 0 ) ( 0.00615721711117014 -0.00998106863528488 0 ) ( 0.0089140944567843 -0.0121314933382281 0 ) ( 0.0121499845752272 -0.0141448262413543 0 ) ( 0.0158600548959792 -0.0160218291376087 0 ) ( 0.0200390236097556 -0.0177634629954273 0 ) ( 0.0246811757653924 -0.0193708928518022 0 ) ( 0.029780380739847 -0.0208454935436505 0 ) ( 0.0353301108607132 -0.022188856112351 0 ) ( 0.041323460942153 -0.023402794698777 0 ) ( 0.0477531684809727 -0.0244893537309159 0 ) ( 0.054611634249969 -0.0254508151934276 0 ) ( 0.061890943020826 -0.0262897057584465 0 ) ( 0.0695828841488505 -0.0270088035497498 0 ) ( 0.077678971756698 -0.0276111443082488 0 ) ( 0.0861704642638798 -0.0281000267257293 0 ) ( 0.0950483830230918 -0.0284790167159776 0 ) ( 0.104303529842999 -0.0287519503979409 0 ) ( 0.113926503199722 -0.0289229355744186 0 ) ( 0.123907712965469 -0.0289963515019677 0 ) ( 0.134237393512065 -0.0289768467631753 0 ) ( 0.144905615078976 -0.0288693350711341 0 ) ( 0.155902293329255 -0.0286789888577117 0 ) ( 0.16721719705188 -0.0284112305218578 0 ) ( 0.178839954004714 -0.028071721241521 0 ) ( 0.190760054927896 -0.0276663472824727 0 ) ( 0.20296685579233 -0.0272012037691338 0 ) ( 0.215449578381269 -0.026682575915997 0 ) ( 0.228197309334206 -0.0261169177530207 0 ) ( 0.241198997810708 -0.0255108284139639 0 ) ( 0.254443451956941 -0.0248710260925518 0 ) ( 0.267919334378876 -0.0242043198070587 0 ) ( 0.281615156843171 -0.023517579148825 0 ) ( 0.295519274439199 -0.0228177022238123 0 ) ( 0.309619879443266 -0.0221115820279619 0 ) ( 0.323904995128893 -0.0214060715262942 0 ) ( 0.338362469764823 -0.0207079477318185 0 ) ( 0.352979971035538 -0.0200238751028881 0 ) ( 0.367744981107601 -0.0193603685961586 0 ) ( 0.382644792549521 -0.0187237567263886 0 ))
         
      
    spline 10 11 
             (( 0.413007514295326 -0.0175322697862147 0 ) ( 0.428478319686892 -0.0169242156255785 0 ) ( 0.444025336965202 -0.0162994154571621 0 ) ( 0.459633657442844 -0.0156619498680268 0 ) ( 0.475288260016036 -0.0150157554063701 0 ) ( 0.490974023238976 -0.0143646031720954 0 ) ( 0.506675738074501 -0.0137120793424778 0 ) ( 0.522378121289047 -0.0130615678190873 0 ) ( 0.538065829451311 -0.0124162351507607 0 ) ( 0.553723473486708 -0.0117790178543307 0 ) ( 0.569335633733864 -0.0111526122205617 0 ) ( 0.584886875444958 -0.0105394666578636 0 ) ( 0.600361764668836 -0.00994177659141668 0 ) ( 0.615744884454441 -0.00936148190089726 0 ) ( 0.631020851312157 -0.00880026684657319 0 ) ( 0.646174331872149 -0.00825956240165626 0 ) ( 0.661190059681417 -0.00774055087893862 0 ) ( 0.676052852085117 -0.00724417271231501 0 ) ( 0.690747627142413 -0.00677113522921121 0 ) ( 0.705259420532518 -0.00632192322851755 0 ) ( 0.719573402412575 -0.00589681116063851 0 ) ( 0.733674894195225 -0.00549587669192214 0 ) ( 0.747549385220018 -0.00511901542517093 0 ) ( 0.761182549298961 -0.00476595654122458 0 ) ( 0.774560261122319 -0.00443627912375976 0 ) ( 0.787668612515953 -0.00412942893041129 0 ) ( 0.800493928546092 -0.00384473537795531 0 ) ( 0.813022783471032 -0.00358142851743571 0 ) ( 0.825242016541975 -0.00333865578650843 0 ) ( 0.83713874765686 -0.00311549834065814 0 ) ( 0.848700392871573 -0.0029109867819467 0 ) ( 0.859914679772338 -0.00272411612324828 0 ) ( 0.870769662711451 -0.00255385984708058 0 ) ( 0.881253737905773 -0.00239918294076178 0 ) ( 0.891355658393814 -0.00225905381325403 0 ) ( 0.901064548842694 -0.00213245502326723 0 ) ( 0.910369920191162 -0.00201839277253822 0 ) ( 0.919261684109086 -0.00191590514225604 0 ) ( 0.927730167247855 -0.00182406907393109 0 ) ( 0.935766125249869 -0.00174200611823884 0 ) ( 0.943360756479142 -0.00166888699611692 0 ) ( 0.950505715429105 -0.00160393503534465 0 ) ( 0.957193125758152 -0.00154642856267883 0 ) ( 0.963415592898572 -0.00149570234612229 0 ) ( 0.969166216180339 -0.00145114819385019 0 ) ( 0.974438600407987 -0.00141221482556196 0 ) ( 0.9792268668266 -0.00137840713846317 0 ) ( 0.98352566341185 -0.00134928499365499 0 ) ( 0.98733017441916 -0.00132446164942001 0 ) ( 0.990636129128385 -0.00130360196579685 0 ) ( 0.993439809723072 -0.00128642050002033 0 ) ( 0.995738058247079 -0.00127267960502998 0 ) ( 0.997528282586384 -0.00126218763349053 0 ) ( 0.998808461429918 -0.00125479733786965 0 ) ( 0.999577148170233 -0.00125040454333391 0 ))
         
      
    spline 8 9 
             (( -0.000298498526082265 0.00280319903343605 0 ) ( -8.41758880732811e-05 0.00566902820995647 0 ) ( 0.000644356082413358 0.00859603815558972 0 ) ( 0.00188797005803452 0.0115820154395524 0 ) ( 0.00364701686682143 0.0146239929132387 0 ) ( 0.00592131816206609 0.0177182652909851 0 ) ( 0.00871015821861384 0.0208604098389652 0 ) ( 0.0120122749938882 0.0240453119983835 0 ) ( 0.0158258506201102 0.0272671957305782 0 ) ( 0.0201485015192076 0.0305196583350066 0 ) ( 0.0249772683533784 0.0337957094567103 0 ) ( 0.0303086060417744 0.0370878139680137 0 ) ( 0.0361383740869577 0.0403879383801986 0 ) ( 0.0424618274634098 0.043687600414976 0 ) ( 0.0492736083242506 0.0469779213429927 0 ) ( 0.0565677387813645 0.0502496806775826 0 ) ( 0.064337615008325 0.053493372796705 0 ) ( 0.072576002904939 0.0566992650546705 0 ) ( 0.0812750355470754 0.0598574569379772 0 ) ( 0.0904262126259425 0.0629579398164767 0 ) ( 0.10002040205749 0.0659906568422186 0 ) ( 0.110047843915553 0.0689455625537335 0 ) ( 0.120498156812181 0.0718126817531499 0 ) ( 0.131360346815954 0.0745821672374037 0 ) ( 0.142622818964423 0.0772443559827031 0 ) ( 0.154273391390988 0.0797898234032638 0 ) ( 0.166299312050002 0.0822094353308656 0 ) ( 0.178687277987582 0.0844943973907733 0 ) ( 0.191423457070004 0.0866363014816444 0 ) ( 0.204493512047533 0.0886271691018958 0 ) ( 0.217882626799684 0.0904594913021467 0 ) ( 0.23157553457879 0.0921262650823499 0 ) ( 0.245556548043059 0.0936210260925518 0 ) ( 0.259809590848442 0.0949378775373247 0 ) ( 0.274318230551055 0.0960715152252178 0 ) ( 0.289065712558915 0.0970172487454869 0 ) ( 0.304034994863606 0.0977710187942635 0 ) ( 0.319208783279235 0.0983294107106223 0 ) ( 0.334569566917755 0.0986896643191137 0 ) ( 0.350099653636188 0.0988496802086665 0 ) ( 0.365781205202365 0.0988080226078464 0 ) ( 0.381596271941051 0.0985639190427926 0 ))
         
      
    spline 9 11 
             (( 0.413344308037744 0.0974936909784217 0 ) ( 0.429206842039822 0.0967393501876097 0 ) ( 0.445136463133786 0.0958577584240015 0 ) ( 0.461116385700368 0.0948519180391886 0 ) ( 0.477129824160222 0.0937251291628167 0 ) ( 0.493160012926216 0.0924809729901796 0 ) ( 0.509190225760307 0.0911232952123484 0 ) ( 0.525203794534695 0.0896561897611453 0 ) ( 0.541184127405477 0.0880839830171763 0 ) ( 0.557114726414304 0.0864112186033473 0 ) ( 0.572979204539422 0.0846426428593359 0 ) ( 0.588761302221973 0.0827831910648738 0 ) ( 0.604444903396354 0.0808379744519699 0 ) ( 0.620014051054987 0.0788122680188801 0 ) ( 0.635452962377879 0.0767114991322106 0 ) ( 0.650746043456125 0.0745412368785233 0 ) ( 0.665877903636005 0.0723071821036288 0 ) ( 0.680833369506755 0.0700151580568222 0 ) ( 0.695597498550715 0.067671101538984 0 ) ( 0.710155592469368 0.0652810544380669 0 ) ( 0.724493210193199 0.0628511555232231 0 ) ( 0.738596180577456 0.0603876323599211 0 ) ( 0.752450614779982 0.0578967932029487 0 ) ( 0.766042918311541 0.0553850187222628 0 ) ( 0.779359802743791 0.052858753418211 0 ) ( 0.792388297055245 0.0503244965876463 0 ) ( 0.805115758591574 0.0477887927107305 0 ) ( 0.81752988361349 0.0452582211395905 0 ) ( 0.829618717403309 0.0427393849842046 0 ) ( 0.841370663900272 0.0402388991076327 0 ) ( 0.852774494834749 0.0377633771616619 0 ) ( 0.863819358332732 0.0353194176146983 0 ) ( 0.874494786964303 0.0329135887459248 0 ) ( 0.884790705213205 0.0305524126029254 0 ) ( 0.894697436348974 0.028242347943708 0 ) ( 0.904205708688364 0.0259897722079028 0 ) ( 0.91330666123867 0.0238009625854344 0 ) ( 0.921991848722096 0.0216820762737328 0 ) ( 0.930253245987123 0.0196391300361348 0 ) ( 0.938083251819917 0.017677979194174 0 ) ( 0.945474692175782 0.0158042962045853 0 ) ( 0.952420822857517 0.0140235489877385 0 ) ( 0.958915331673918 0.0123409791876013 0 ) ( 0.9649523401175 0.0107615805539577 0 ) ( 0.970526404605569 0.00929007764530289 0 ) ( 0.975632517332959 0.00793090505545592 0 ) ( 0.980266106787898 0.00668818736838589 0 ) ( 0.984423037984506 0.00556572004401975 0 ) ( 0.988099612466248 0.00456695143289359 0 ) ( 0.991292568134321 0.00369496610951255 0 ) ( 0.993999078953322 0.00295246970329644 0 ) ( 0.996216754583717 0.00234177539222454 0 ) ( 0.9979436399867 0.00186479220790243 0 ) ( 0.999178215041966 0.00152301528208349 0 ) ( 0.999919394212953 0.00131751814393287 0 ))
         
      
    
    spline 20 22 
             (( 0.000801956142897183 -0.00270253919376955 0.01 ) ( 0.00209749941618884 -0.00526687018828697 0.01 ) ( 0.00388372134450206 -0.00769298560585465 0.01 ) ( 0.00615721711117014 -0.00998106863528488 0.01 ) ( 0.0089140944567843 -0.0121314933382281 0.01 ) ( 0.0121499845752272 -0.0141448262413543 0.01 ) ( 0.0158600548959792 -0.0160218291376087 0.01 ) ( 0.0200390236097556 -0.0177634629954273 0.01 ) ( 0.0246811757653924 -0.0193708928518022 0.01 ) ( 0.029780380739847 -0.0208454935436505 0.01 ) ( 0.0353301108607132 -0.022188856112351 0.01 ) ( 0.041323460942153 -0.023402794698777 0.01 ) ( 0.0477531684809727 -0.0244893537309159 0.01 ) ( 0.054611634249969 -0.0254508151934276 0.01 ) ( 0.061890943020826 -0.0262897057584465 0.01 ) ( 0.0695828841488505 -0.0270088035497498 0.01 ) ( 0.077678971756698 -0.0276111443082488 0.01 ) ( 0.0861704642638798 -0.0281000267257293 0.01 ) ( 0.0950483830230918 -0.0284790167159776 0.01 ) ( 0.104303529842999 -0.0287519503979409 0.01 ) ( 0.113926503199722 -0.0289229355744186 0.01 ) ( 0.123907712965469 -0.0289963515019677 0.01 ) ( 0.134237393512065 -0.0289768467631753 0.01 ) ( 0.144905615078976 -0.0288693350711341 0.01 ) ( 0.155902293329255 -0.0286789888577117 0.01 ) ( 0.16721719705188 -0.0284112305218578 0.01 ) ( 0.178839954004714 -0.028071721241521 0.01 ) ( 0.190760054927896 -0.0276663472824727 0.01 ) ( 0.20296685579233 -0.0272012037691338 0.01 ) ( 0.215449578381269 -0.026682575915997 0.01 ) ( 0.228197309334206 -0.0261169177530207 0.01 ) ( 0.241198997810708 -0.0255108284139639 0.01 ) ( 0.254443451956941 -0.0248710260925518 0.01 ) ( 0.267919334378876 -0.0242043198070587 0.01 ) ( 0.281615156843171 -0.023517579148825 0.01 ) ( 0.295519274439199 -0.0228177022238123 0.01 ) ( 0.309619879443266 -0.0221115820279619 0.01 ) ( 0.323904995128893 -0.0214060715262942 0.01 ) ( 0.338362469764823 -0.0207079477318185 0.01 ) ( 0.352979971035538 -0.0200238751028881 0.01 ) ( 0.367744981107601 -0.0193603685961586 0.01 ) ( 0.382644792549521 -0.0187237567263886 0.01 ))
         
      
    spline 22 23 
             (( 0.413007514295326 -0.0175322697862147 0.01 ) ( 0.428478319686892 -0.0169242156255785 0.01 ) ( 0.444025336965202 -0.0162994154571621 0.01 ) ( 0.459633657442844 -0.0156619498680268 0.01 ) ( 0.475288260016036 -0.0150157554063701 0.01 ) ( 0.490974023238976 -0.0143646031720954 0.01 ) ( 0.506675738074501 -0.0137120793424778 0.01 ) ( 0.522378121289047 -0.0130615678190873 0.01 ) ( 0.538065829451311 -0.0124162351507607 0.01 ) ( 0.553723473486708 -0.0117790178543307 0.01 ) ( 0.569335633733864 -0.0111526122205617 0.01 ) ( 0.584886875444958 -0.0105394666578636 0.01 ) ( 0.600361764668836 -0.00994177659141668 0.01 ) ( 0.615744884454441 -0.00936148190089726 0.01 ) ( 0.631020851312157 -0.00880026684657319 0.01 ) ( 0.646174331872149 -0.00825956240165626 0.01 ) ( 0.661190059681417 -0.00774055087893862 0.01 ) ( 0.676052852085117 -0.00724417271231501 0.01 ) ( 0.690747627142413 -0.00677113522921121 0.01 ) ( 0.705259420532518 -0.00632192322851755 0.01 ) ( 0.719573402412575 -0.00589681116063851 0.01 ) ( 0.733674894195225 -0.00549587669192214 0.01 ) ( 0.747549385220018 -0.00511901542517093 0.01 ) ( 0.761182549298961 -0.00476595654122458 0.01 ) ( 0.774560261122319 -0.00443627912375976 0.01 ) ( 0.787668612515953 -0.00412942893041129 0.01 ) ( 0.800493928546092 -0.00384473537795531 0.01 ) ( 0.813022783471032 -0.00358142851743571 0.01 ) ( 0.825242016541975 -0.00333865578650843 0.01 ) ( 0.83713874765686 -0.00311549834065814 0.01 ) ( 0.848700392871573 -0.0029109867819467 0.01 ) ( 0.859914679772338 -0.00272411612324828 0.01 ) ( 0.870769662711451 -0.00255385984708058 0.01 ) ( 0.881253737905773 -0.00239918294076178 0.01 ) ( 0.891355658393814 -0.00225905381325403 0.01 ) ( 0.901064548842694 -0.00213245502326723 0.01 ) ( 0.910369920191162 -0.00201839277253822 0.01 ) ( 0.919261684109086 -0.00191590514225604 0.01 ) ( 0.927730167247855 -0.00182406907393109 0.01 ) ( 0.935766125249869 -0.00174200611823884 0.01 ) ( 0.943360756479142 -0.00166888699611692 0.01 ) ( 0.950505715429105 -0.00160393503534465 0.01 ) ( 0.957193125758152 -0.00154642856267883 0.01 ) ( 0.963415592898572 -0.00149570234612229 0.01 ) ( 0.969166216180339 -0.00145114819385019 0.01 ) ( 0.974438600407987 -0.00141221482556196 0.01 ) ( 0.9792268668266 -0.00137840713846317 0.01 ) ( 0.98352566341185 -0.00134928499365499 0.01 ) ( 0.98733017441916 -0.00132446164942001 0.01 ) ( 0.990636129128385 -0.00130360196579685 0.01 ) ( 0.993439809723072 -0.00128642050002033 0.01 ) ( 0.995738058247079 -0.00127267960502998 0.01 ) ( 0.997528282586384 -0.00126218763349053 0.01 ) ( 0.998808461429918 -0.00125479733786965 0.01 ) ( 0.999577148170233 -0.00125040454333391 0.01 ))
         
      
    spline 20 21 
             (( -0.000298498526082265 0.00280319903343605 0.01 ) ( -8.41758880732811e-05 0.00566902820995647 0.01 ) ( 0.000644356082413358 0.00859603815558972 0.01 ) ( 0.00188797005803452 0.0115820154395524 0.01 ) ( 0.00364701686682143 0.0146239929132387 0.01 ) ( 0.00592131816206609 0.0177182652909851 0.01 ) ( 0.00871015821861384 0.0208604098389652 0.01 ) ( 0.0120122749938882 0.0240453119983835 0.01 ) ( 0.0158258506201102 0.0272671957305782 0.01 ) ( 0.0201485015192076 0.0305196583350066 0.01 ) ( 0.0249772683533784 0.0337957094567103 0.01 ) ( 0.0303086060417744 0.0370878139680137 0.01 ) ( 0.0361383740869577 0.0403879383801986 0.01 ) ( 0.0424618274634098 0.043687600414976 0.01 ) ( 0.0492736083242506 0.0469779213429927 0.01 ) ( 0.0565677387813645 0.0502496806775826 0.01 ) ( 0.064337615008325 0.053493372796705 0.01 ) ( 0.072576002904939 0.0566992650546705 0.01 ) ( 0.0812750355470754 0.0598574569379772 0.01 ) ( 0.0904262126259425 0.0629579398164767 0.01 ) ( 0.10002040205749 0.0659906568422186 0.01 ) ( 0.110047843915553 0.0689455625537335 0.01 ) ( 0.120498156812181 0.0718126817531499 0.01 ) ( 0.131360346815954 0.0745821672374037 0.01 ) ( 0.142622818964423 0.0772443559827031 0.01 ) ( 0.154273391390988 0.0797898234032638 0.01 ) ( 0.166299312050002 0.0822094353308656 0.01 ) ( 0.178687277987582 0.0844943973907733 0.01 ) ( 0.191423457070004 0.0866363014816444 0.01 ) ( 0.204493512047533 0.0886271691018958 0.01 ) ( 0.217882626799684 0.0904594913021467 0.01 ) ( 0.23157553457879 0.0921262650823499 0.01 ) ( 0.245556548043059 0.0936210260925518 0.01 ) ( 0.259809590848442 0.0949378775373247 0.01 ) ( 0.274318230551055 0.0960715152252178 0.01 ) ( 0.289065712558915 0.0970172487454869 0.01 ) ( 0.304034994863606 0.0977710187942635 0.01 ) ( 0.319208783279235 0.0983294107106223 0.01 ) ( 0.334569566917755 0.0986896643191137 0.01 ) ( 0.350099653636188 0.0988496802086665 0.01 ) ( 0.365781205202365 0.0988080226078464 0.01 ) ( 0.381596271941051 0.0985639190427926 0.01 ))
         
      
    spline 21 23 
             (( 0.413344308037744 0.0974936909784217 0.01 ) ( 0.429206842039822 0.0967393501876097 0.01 ) ( 0.445136463133786 0.0958577584240015 0.01 ) ( 0.461116385700368 0.0948519180391886 0.01 ) ( 0.477129824160222 0.0937251291628167 0.01 ) ( 0.493160012926216 0.0924809729901796 0.01 ) ( 0.509190225760307 0.0911232952123484 0.01 ) ( 0.525203794534695 0.0896561897611453 0.01 ) ( 0.541184127405477 0.0880839830171763 0.01 ) ( 0.557114726414304 0.0864112186033473 0.01 ) ( 0.572979204539422 0.0846426428593359 0.01 ) ( 0.588761302221973 0.0827831910648738 0.01 ) ( 0.604444903396354 0.0808379744519699 0.01 ) ( 0.620014051054987 0.0788122680188801 0.01 ) ( 0.635452962377879 0.0767114991322106 0.01 ) ( 0.650746043456125 0.0745412368785233 0.01 ) ( 0.665877903636005 0.0723071821036288 0.01 ) ( 0.680833369506755 0.0700151580568222 0.01 ) ( 0.695597498550715 0.067671101538984 0.01 ) ( 0.710155592469368 0.0652810544380669 0.01 ) ( 0.724493210193199 0.0628511555232231 0.01 ) ( 0.738596180577456 0.0603876323599211 0.01 ) ( 0.752450614779982 0.0578967932029487 0.01 ) ( 0.766042918311541 0.0553850187222628 0.01 ) ( 0.779359802743791 0.052858753418211 0.01 ) ( 0.792388297055245 0.0503244965876463 0.01 ) ( 0.805115758591574 0.0477887927107305 0.01 ) ( 0.81752988361349 0.0452582211395905 0.01 ) ( 0.829618717403309 0.0427393849842046 0.01 ) ( 0.841370663900272 0.0402388991076327 0.01 ) ( 0.852774494834749 0.0377633771616619 0.01 ) ( 0.863819358332732 0.0353194176146983 0.01 ) ( 0.874494786964303 0.0329135887459248 0.01 ) ( 0.884790705213205 0.0305524126029254 0.01 ) ( 0.894697436348974 0.028242347943708 0.01 ) ( 0.904205708688364 0.0259897722079028 0.01 ) ( 0.91330666123867 0.0238009625854344 0.01 ) ( 0.921991848722096 0.0216820762737328 0.01 ) ( 0.930253245987123 0.0196391300361348 0.01 ) ( 0.938083251819917 0.017677979194174 0.01 ) ( 0.945474692175782 0.0158042962045853 0.01 ) ( 0.952420822857517 0.0140235489877385 0.01 ) ( 0.958915331673918 0.0123409791876013 0.01 ) ( 0.9649523401175 0.0107615805539577 0.01 ) ( 0.970526404605569 0.00929007764530289 0.01 ) ( 0.975632517332959 0.00793090505545592 0.01 ) ( 0.980266106787898 0.00668818736838589 0.01 ) ( 0.984423037984506 0.00556572004401975 0.01 ) ( 0.988099612466248 0.00456695143289359 0.01 ) ( 0.991292568134321 0.00369496610951255 0.01 ) ( 0.993999078953322 0.00295246970329644 0.01 ) ( 0.996216754583717 0.00234177539222454 0.01 ) ( 0.9979436399867 0.00186479220790243 0.01 ) ( 0.999178215041966 0.00152301528208349 0.01 ) ( 0.999919394212953 0.00131751814393287 0.01 ))
         
      
    
);

patches
(
    wall airfoil
    (
        (8 10 22 20)
        (10 11 23 22)
        (8 9 21 20)
        (9 11 23 21)
    )
    
    patch farBoundaries
    (
        (6 7 19 18)
        (5 6 18 17)
        (2 3 15 14)
        (1 2 14 13)
    )
    
    patch inlet
    (
        (7 0 12 19)
        (0 1 13 12)
    )
    
    patch outlet
    (
        (4 5 17 16)
        (3 4 16 15)
    )
);

mergePatchPairs
(
);
