/*--------------------------------*- C++ -*----------------------------------*\
  =========                 |
  \\      /  F ield         | OpenFOAM: The Open Source CFD Toolbox
   \\    /   O peration     | Website:  https://openfoam.org
    \\  /    A nd           | Version:  6.0
     \\/     M anipulation  |
\*---------------------------------------------------------------------------*/
FoamFile
{
    version     2.0;
    format      ascii;
    class       polyBoundaryMesh;
    location    "constant/polyMesh";
    object      boundary;
}
// * * * * * * * * * * * * * * * * * * * * * * * * * * * * * * * * * * * * * //

5
(
    airfoil
    {
        type            wall;
        inGroups        1(wall);
        nFaces          70;
        startFace       58656;
    }
    farBoundaries
    {
        type            patch;
        nFaces          88;
        startFace       58726;
    }
    inlet
    {
        type            patch;
        nFaces          30;
        startFace       58814;
    }
    outlet
    {
        type            patch;
        nFaces          500;
        startFace       58844;
    }
    defaultFaces
    {
        type            empty;
        inGroups        1(empty);
        nFaces          59000;
        startFace       59344;
    }
)

// ************************************************************************* //
