/*--------------------------------*- C++ -*----------------------------------*\
  =========                 |
  \\      /  F ield         | OpenFOAM: The Open Source CFD Toolbox
   \\    /   O peration     | Website:  https://openfoam.org
    \\  /    A nd           | Version:  6.0
     \\/     M anipulation  |
\*---------------------------------------------------------------------------*/
FoamFile
{
    version     2.0;
    format      ascii;
    class       polyBoundaryMesh;
    location    "constant/polyMesh";
    object      boundary;
}
// * * * * * * * * * * * * * * * * * * * * * * * * * * * * * * * * * * * * * //

5
(
    airfoil
    {
        type            wall;
        inGroups        1(wall);
        nFaces          54;
        startFace       27976;
    }
    farBoundaries
    {
        type            patch;
        nFaces          70;
        startFace       28030;
    }
    inlet
    {
        type            patch;
        nFaces          24;
        startFace       28100;
    }
    outlet
    {
        type            patch;
        nFaces          300;
        startFace       28124;
    }
    defaultFaces
    {
        type            empty;
        inGroups        1(empty);
        nFaces          28200;
        startFace       28424;
    }
)

// ************************************************************************* //
