/*--------------------------------*- C++ -*----------------------------------*\
| =========                 |                                                 |
| \\      /  F ield         | OpenFOAM: The Open Source CFD Toolbox           |
|  \\    /   O peration     |                                                 |
|   \\  /    A nd           | Copyright (C) 2018 Ehsan Madadi-Kandjani        |
|    \\/     M anipulation  |                                                 |
\*---------------------------------------------------------------------------*/
FoamFile
{
    version     2.0;
    format    ascii;
    class       dictionary;
    object      blockMeshDict;
}
// * * * * * * * * * * * * * * * * * * * * * * * * * * * * * * * * * * * * * //











// Returns a zero array


// Returns a zero array with commas in the middle of it


// Returns a linear  array with commas (initial point, last point, number of segments, c)

  
// Returns a y_t with commas (arrayX, number of segments, t, c)


// Returns a y_c with commas (arrayX, number of segments, m, p, c)


// Returns a theta with commas (arrayX, number of segments, m, p, c)

      
// Returns a xu with commas (arrayX, arrayYt, arrayTheta, number of segments)


// Returns a yu with commas (arrayYc, arrayYt, arrayTheta, number of segments)

      
// Returns a xl with commas (arrayX, arrayYt, arrayTheta, number of segments)


// Returns a yl with commas (arrayYc, arrayYt, arrayTheta, number of segments)

      
// Include angle of attack (arrayXu, arrayYu, alpha, number of segments)

      

      
// Include angle of attack (arrayXl, arrayYl, alpha, number of segments)

      

      
// Xu with comma to obtain Cmax (arrayXu, arrayYu, alpha, number of segments)



      
// Include angle of attack (arrayXl, arrayYl, alpha, number of segments)

      

      
// Returns the index of maximum array (Yc, Yt, p, number of segments)

      

      


      
// * * * * * * * * * * * * * * * * * * * * * * * * * * * * * * * * * * * * * //

convertToMeters 1.0;

//NACA airfoil geometry

//Chord length


//Angle of attack (in radian)


//NACA digits





//Mesh

//Height of mesh in y direction


//Length of downstream


//Foil depth in z direction perpendicular to x-y surface


//Scale factor (the mesh is normalized to have chord length equal to one)


//Number of cells and points at each direction and element

//Number of cells in y direction


//Number of cells in downstream


//Number of cells in z direction


//Number of meshes on the front part of airfoil edges p8-p9 and p8-p10b


//Number of meshes on the back part of airfoil edges p9-p11 and p10-p11


//Number of interpolation points along the airfoil for defining the splines


//Cell expansion ratios

//Expansion ratio in y above


//Expansion ratio in y below


//Expansion ratio in x direction behind airfoil


// Base z


// Depth of airfoil


// Front z


// m,p, and t values for the airfoil




// Calculate x array


// Calculate yt array


// Calculate camber


// Calculate theta


// Calculate upper surface x components


// Calculate upper surface y components


// Calculate lower surface x components


// Calculate lower surface y components







// define Cmax


// Move the airfoil





























//Define the points for the inlet arc allocation


















// * * * * * * * * * * * * * * * * * * * * * * * * * * * * * * * * * * * * * //



// * * * * * * * * * * * * * * * * * * * * * * * * * * * * * * * * * * * * * //

vertices
(
    (-1.69317256284656 0 0) // Vertex p00b = 0 
    (0.306827437153436 -2 0) // Vertex p01b = 1 
    (1 -2 0) // Vertex p02b = 2 
    (3 -2 0) // Vertex p03b = 3 
    (3 -0.00125999999999998 0) // Vertex p04b = 4 
    (3 2 0) // Vertex p05b = 5 
    (1 2 0) // Vertex p06b = 6 
    (0.306827437153436 2 0) // Vertex p07b = 7 
    (0 0 0) // Vertex p08b = 8 
    (0.306827437153436 0.0600063099091861 0) // Vertex p09b = 9 
    (0.306827437153436 -0.0600063099091861 0) // Vertex p10b = 10 
    (1 -0.00125999999999998 0) // Vertex p11b = 11 
    
    (-1.69317256284656 0 0.01) // Vertex p00t = 12 
    (0.306827437153436 -2 0.01) // Vertex p01t = 13 
    (1 -2 0.01) // Vertex p02t = 14 
    (3 -2 0.01) // Vertex p03t = 15 
    (3 -0.00125999999999998 0.01) // Vertex p04t = 16 
    (3 2 0.01) // Vertex p05t = 17 
    (1 2 0.01) // Vertex p06t = 18 
    (0.306827437153436 2 0.01) // Vertex p07t = 19 
    (0 0 0.01) // Vertex p08t = 20 
    (0.306827437153436 0.0600063099091861 0.01) // Vertex p09t = 21 
    (0.306827437153436 -0.0600063099091861 0.01) // Vertex p10t = 22 
    (1 -0.00125999999999998 0.01) // Vertex p11t = 23 
);

blocks
(
    //B0
    hex (0 1 10 8 12 13 22 20)
    square
    (30 250 1)
    simpleGrading (1 0.01 1)
    
    //B1
    hex (1 2 11 10 13 14 23 22)
    square
    (40 250 1)
    simpleGrading (1 0.01 1)
    
    //B2
    hex (2 3 4 11 14 15 16 23)
    square
    (24 250 1)
    simpleGrading (100 0.01 1)
    
    //B3
    hex (11 4 5 6 23 16 17 18)
    square
    (24 250 1)
    simpleGrading (100 100 1)
    
    //B4
    hex (9 11 6 7 21 23 18 19)
    square
    (40 250 1)
    simpleGrading (1 100 1)
    
    //B5
    hex (8 9 7 0 20 21 19 12)
    square
    (30 250 1)
    simpleGrading (1 100 1)
);

edges
(
    //Inlet arc
    arc 0 7 (-1.10738612521966 1.41421356237309 0)
    arc 0 1 (-1.10738612521966 -1.41421356237309 0)

    arc 12 19 (-1.10738612521966 1.41421356237309 0.01)
    arc 12 13 (-1.10738612521966 -1.41421356237309 0.01)
    
    //Airfoil surface spline
    spline 8 10 
             (( 0.000251728808407459 -0.00280731873435275 0 ) ( 0.00100666176405778 -0.00557569683783854 0 ) ( 0.00226403871345771 -0.00830400178230542 0 ) ( 0.00402259358460233 -0.0109908264614087 0 ) ( 0.00628055566180286 -0.0136344980737385 0 ) ( 0.00903565136864665 -0.0162330903349045 0 ) ( 0.0122851065572965 -0.0187844388685296 0 ) ( 0.0160256493018219 -0.0212861595868385 0 ) ( 0.0202535131927513 -0.0237356698349058 0 ) ( 0.0249644411295273 -0.0261302120391248 0 ) ( 0.0301536896070458 -0.0284668795705562 0 ) ( 0.0358160334919637 -0.0307426445078949 0 ) ( 0.0419457712839652 -0.0329543869632183 0 ) ( 0.0485367308566894 -0.0350989256167161 0 ) ( 0.0555822756725383 -0.0371730490944749 0 ) ( 0.0630753114651075 -0.0391735478162298 0 ) ( 0.0710082933825115 -0.0410972459378822 0 ) ( 0.0793732335844094 -0.0429410330165016 0 ) ( 0.0881617092850836 -0.044701895033407 0 ) ( 0.0973648712344707 -0.0463769444236124 0 ) ( 0.106973452628606 -0.0479634487771926 0 ) ( 0.116977778440511 -0.0494588578997109 0 ) ( 0.127367775162123 -0.0508608289443815 0 ) ( 0.138132980947465 -0.0521672493577403 0 ) ( 0.149262556146839 -0.0533762574127946 0 ) ( 0.160745294221434 -0.0544862601384377 0 ) ( 0.172569633027358 -0.0554959484908123 0 ) ( 0.184723666457739 -0.0564043096507431 0 ) ( 0.197195156431167 -0.0572106363707474 0 ) ( 0.209971545214401 -0.057914533334908 0 ) ( 0.223039968066945 -0.0585159205344701 0 ) ( 0.236387266194749 -0.0590150337008218 0 ) ( 0.25 -0.059412421875 0 ) ( 0.263864462613659 -0.0597089422284833 0 ) ( 0.277966693697113 -0.0599057522833081 0 ) ( 0.292292493499057 -0.0600042997100145 0 ))
         
      
    spline 10 11 
             (( 0.321556889204064 -0.0599137716060419 0 ) ( 0.336466018341289 -0.0597289207073764 0 ) ( 0.351539812335863 -0.0594542226858829 0 ) ( 0.366763093154983 -0.0590923537683784 0 ) ( 0.382120532245286 -0.0586461812115737 0 ) ( 0.397596665967405 -0.0581187429517579 0 ) ( 0.413175911166535 -0.0575132269131471 0 ) ( 0.428842580863357 -0.0568329502537649 0 ) ( 0.444580900049494 -0.0560813388177656 0 ) ( 0.460375021571606 -0.0552619070492937 0 ) ( 0.476209042088129 -0.054378238605591 0 ) ( 0.492067018082596 -0.0534339678864513 0 ) ( 0.507932981917404 -0.052432762673668 0 ) ( 0.523790957911871 -0.0513783080482479 0 ) ( 0.539624978428394 -0.0502742917253289 0 ) ( 0.555419099950506 -0.0491243909174293 0 ) ( 0.571157419136643 -0.0479322608063655 0 ) ( 0.586824088833465 -0.0467015246734131 0 ) ( 0.602403334032595 -0.0454357657065648 0 ) ( 0.617879467754714 -0.0441385204735576 0 ) ( 0.633236906845018 -0.0428132740201832 0 ) ( 0.648460187664137 -0.0414634565257277 0 ) ( 0.663533981658711 -0.0400924414216414 0 ) ( 0.678443110795936 -0.0387035448561031 0 ) ( 0.693172562846564 -0.0373000263663751 0 ) ( 0.707707506500943 -0.0358850906030506 0 ) ( 0.722033306302887 -0.0344618899357088 0 ) ( 0.736135537386341 -0.0330335277583255 0 ) ( 0.75 -0.0316030623051599 0 ) ( 0.763612733805251 -0.0301735107838279 0 ) ( 0.776960031933055 -0.0287478536318876 0 ) ( 0.790028454785599 -0.0273290387064593 0 ) ( 0.802804843568833 -0.0259199852230592 0 ) ( 0.815276333542261 -0.0245235872697858 0 ) ( 0.827430366972642 -0.0231427167360333 0 ) ( 0.839254705778566 -0.021780225510745 0 ) ( 0.850737443853161 -0.0204389468235492 0 ) ( 0.861867019052535 -0.0191216956225793 0 ) ( 0.872632224837877 -0.0178312679049799 0 ) ( 0.883022221559489 -0.0165704389396342 0 ) ( 0.893026547371394 -0.0153419603460673 0 ) ( 0.902635128765529 -0.0141485560183505 0 ) ( 0.911838290714916 -0.0129929169076981 0 ) ( 0.920626766415591 -0.0118776947018717 0 ) ( 0.928991706617489 -0.0108054944630368 0 ) ( 0.936924688534893 -0.00977886630796174 0 ) ( 0.944417724327462 -0.00880029623499735 0 ) ( 0.951463269143311 -0.00787219622078358 0 ) ( 0.958054228716035 -0.00699689372576935 0 ) ( 0.964183966508036 -0.00617662076113382 0 ) ( 0.969846310392954 -0.00541350268033142 0 ) ( 0.975035558870473 -0.00470954686606914 0 ) ( 0.979746486807249 -0.00406663148794822 0 ) ( 0.983974350698178 -0.00348649450719186 0 ) ( 0.987714893442704 -0.0029707231028305 0 ) ( 0.990964348631353 -0.00252074368847853 0 ) ( 0.993719444338197 -0.00213781268050308 0 ) ( 0.995977406415398 -0.00182300816714355 0 ) ( 0.997735961286542 -0.0015772226141603 0 ) ( 0.998993338235942 -0.00140115672617253 0 ) ( 0.999748271191593 -0.00129531456426009 0 ))
         
      
    spline 8 9 
             (( 0.000251728808407459 0.00280731873435275 0 ) ( 0.00100666176405778 0.00557569683783854 0 ) ( 0.00226403871345771 0.00830400178230542 0 ) ( 0.00402259358460233 0.0109908264614087 0 ) ( 0.00628055566180286 0.0136344980737385 0 ) ( 0.00903565136864665 0.0162330903349045 0 ) ( 0.0122851065572965 0.0187844388685296 0 ) ( 0.0160256493018219 0.0212861595868385 0 ) ( 0.0202535131927513 0.0237356698349058 0 ) ( 0.0249644411295273 0.0261302120391248 0 ) ( 0.0301536896070458 0.0284668795705562 0 ) ( 0.0358160334919637 0.0307426445078949 0 ) ( 0.0419457712839652 0.0329543869632183 0 ) ( 0.0485367308566894 0.0350989256167161 0 ) ( 0.0555822756725383 0.0371730490944749 0 ) ( 0.0630753114651075 0.0391735478162298 0 ) ( 0.0710082933825115 0.0410972459378822 0 ) ( 0.0793732335844094 0.0429410330165016 0 ) ( 0.0881617092850836 0.044701895033407 0 ) ( 0.0973648712344707 0.0463769444236124 0 ) ( 0.106973452628606 0.0479634487771926 0 ) ( 0.116977778440511 0.0494588578997109 0 ) ( 0.127367775162123 0.0508608289443815 0 ) ( 0.138132980947465 0.0521672493577403 0 ) ( 0.149262556146839 0.0533762574127946 0 ) ( 0.160745294221434 0.0544862601384377 0 ) ( 0.172569633027358 0.0554959484908123 0 ) ( 0.184723666457739 0.0564043096507431 0 ) ( 0.197195156431167 0.0572106363707474 0 ) ( 0.209971545214401 0.057914533334908 0 ) ( 0.223039968066945 0.0585159205344701 0 ) ( 0.236387266194749 0.0590150337008218 0 ) ( 0.25 0.059412421875 0 ) ( 0.263864462613659 0.0597089422284833 0 ) ( 0.277966693697113 0.0599057522833081 0 ) ( 0.292292493499057 0.0600042997100145 0 ))
         
      
    spline 9 11 
             (( 0.321556889204064 0.0599137716060419 0 ) ( 0.336466018341289 0.0597289207073764 0 ) ( 0.351539812335863 0.0594542226858829 0 ) ( 0.366763093154983 0.0590923537683784 0 ) ( 0.382120532245286 0.0586461812115737 0 ) ( 0.397596665967405 0.0581187429517579 0 ) ( 0.413175911166535 0.0575132269131471 0 ) ( 0.428842580863357 0.0568329502537649 0 ) ( 0.444580900049494 0.0560813388177656 0 ) ( 0.460375021571606 0.0552619070492937 0 ) ( 0.476209042088129 0.054378238605591 0 ) ( 0.492067018082596 0.0534339678864513 0 ) ( 0.507932981917404 0.052432762673668 0 ) ( 0.523790957911871 0.0513783080482479 0 ) ( 0.539624978428394 0.0502742917253289 0 ) ( 0.555419099950506 0.0491243909174293 0 ) ( 0.571157419136643 0.0479322608063655 0 ) ( 0.586824088833465 0.0467015246734131 0 ) ( 0.602403334032595 0.0454357657065648 0 ) ( 0.617879467754714 0.0441385204735576 0 ) ( 0.633236906845018 0.0428132740201832 0 ) ( 0.648460187664137 0.0414634565257277 0 ) ( 0.663533981658711 0.0400924414216414 0 ) ( 0.678443110795936 0.0387035448561031 0 ) ( 0.693172562846564 0.0373000263663751 0 ) ( 0.707707506500943 0.0358850906030506 0 ) ( 0.722033306302887 0.0344618899357088 0 ) ( 0.736135537386341 0.0330335277583255 0 ) ( 0.75 0.0316030623051599 0 ) ( 0.763612733805251 0.0301735107838279 0 ) ( 0.776960031933055 0.0287478536318876 0 ) ( 0.790028454785599 0.0273290387064593 0 ) ( 0.802804843568833 0.0259199852230592 0 ) ( 0.815276333542261 0.0245235872697858 0 ) ( 0.827430366972642 0.0231427167360333 0 ) ( 0.839254705778566 0.021780225510745 0 ) ( 0.850737443853161 0.0204389468235492 0 ) ( 0.861867019052535 0.0191216956225793 0 ) ( 0.872632224837877 0.0178312679049799 0 ) ( 0.883022221559489 0.0165704389396342 0 ) ( 0.893026547371394 0.0153419603460673 0 ) ( 0.902635128765529 0.0141485560183505 0 ) ( 0.911838290714916 0.0129929169076981 0 ) ( 0.920626766415591 0.0118776947018717 0 ) ( 0.928991706617489 0.0108054944630368 0 ) ( 0.936924688534893 0.00977886630796174 0 ) ( 0.944417724327462 0.00880029623499735 0 ) ( 0.951463269143311 0.00787219622078358 0 ) ( 0.958054228716035 0.00699689372576935 0 ) ( 0.964183966508036 0.00617662076113382 0 ) ( 0.969846310392954 0.00541350268033142 0 ) ( 0.975035558870473 0.00470954686606914 0 ) ( 0.979746486807249 0.00406663148794822 0 ) ( 0.983974350698178 0.00348649450719186 0 ) ( 0.987714893442704 0.0029707231028305 0 ) ( 0.990964348631353 0.00252074368847853 0 ) ( 0.993719444338197 0.00213781268050308 0 ) ( 0.995977406415398 0.00182300816714355 0 ) ( 0.997735961286542 0.0015772226141603 0 ) ( 0.998993338235942 0.00140115672617253 0 ) ( 0.999748271191593 0.00129531456426009 0 ))
         
      
    
    spline 20 22 
             (( 0.000251728808407459 -0.00280731873435275 0.01 ) ( 0.00100666176405778 -0.00557569683783854 0.01 ) ( 0.00226403871345771 -0.00830400178230542 0.01 ) ( 0.00402259358460233 -0.0109908264614087 0.01 ) ( 0.00628055566180286 -0.0136344980737385 0.01 ) ( 0.00903565136864665 -0.0162330903349045 0.01 ) ( 0.0122851065572965 -0.0187844388685296 0.01 ) ( 0.0160256493018219 -0.0212861595868385 0.01 ) ( 0.0202535131927513 -0.0237356698349058 0.01 ) ( 0.0249644411295273 -0.0261302120391248 0.01 ) ( 0.0301536896070458 -0.0284668795705562 0.01 ) ( 0.0358160334919637 -0.0307426445078949 0.01 ) ( 0.0419457712839652 -0.0329543869632183 0.01 ) ( 0.0485367308566894 -0.0350989256167161 0.01 ) ( 0.0555822756725383 -0.0371730490944749 0.01 ) ( 0.0630753114651075 -0.0391735478162298 0.01 ) ( 0.0710082933825115 -0.0410972459378822 0.01 ) ( 0.0793732335844094 -0.0429410330165016 0.01 ) ( 0.0881617092850836 -0.044701895033407 0.01 ) ( 0.0973648712344707 -0.0463769444236124 0.01 ) ( 0.106973452628606 -0.0479634487771926 0.01 ) ( 0.116977778440511 -0.0494588578997109 0.01 ) ( 0.127367775162123 -0.0508608289443815 0.01 ) ( 0.138132980947465 -0.0521672493577403 0.01 ) ( 0.149262556146839 -0.0533762574127946 0.01 ) ( 0.160745294221434 -0.0544862601384377 0.01 ) ( 0.172569633027358 -0.0554959484908123 0.01 ) ( 0.184723666457739 -0.0564043096507431 0.01 ) ( 0.197195156431167 -0.0572106363707474 0.01 ) ( 0.209971545214401 -0.057914533334908 0.01 ) ( 0.223039968066945 -0.0585159205344701 0.01 ) ( 0.236387266194749 -0.0590150337008218 0.01 ) ( 0.25 -0.059412421875 0.01 ) ( 0.263864462613659 -0.0597089422284833 0.01 ) ( 0.277966693697113 -0.0599057522833081 0.01 ) ( 0.292292493499057 -0.0600042997100145 0.01 ))
         
      
    spline 22 23 
             (( 0.321556889204064 -0.0599137716060419 0.01 ) ( 0.336466018341289 -0.0597289207073764 0.01 ) ( 0.351539812335863 -0.0594542226858829 0.01 ) ( 0.366763093154983 -0.0590923537683784 0.01 ) ( 0.382120532245286 -0.0586461812115737 0.01 ) ( 0.397596665967405 -0.0581187429517579 0.01 ) ( 0.413175911166535 -0.0575132269131471 0.01 ) ( 0.428842580863357 -0.0568329502537649 0.01 ) ( 0.444580900049494 -0.0560813388177656 0.01 ) ( 0.460375021571606 -0.0552619070492937 0.01 ) ( 0.476209042088129 -0.054378238605591 0.01 ) ( 0.492067018082596 -0.0534339678864513 0.01 ) ( 0.507932981917404 -0.052432762673668 0.01 ) ( 0.523790957911871 -0.0513783080482479 0.01 ) ( 0.539624978428394 -0.0502742917253289 0.01 ) ( 0.555419099950506 -0.0491243909174293 0.01 ) ( 0.571157419136643 -0.0479322608063655 0.01 ) ( 0.586824088833465 -0.0467015246734131 0.01 ) ( 0.602403334032595 -0.0454357657065648 0.01 ) ( 0.617879467754714 -0.0441385204735576 0.01 ) ( 0.633236906845018 -0.0428132740201832 0.01 ) ( 0.648460187664137 -0.0414634565257277 0.01 ) ( 0.663533981658711 -0.0400924414216414 0.01 ) ( 0.678443110795936 -0.0387035448561031 0.01 ) ( 0.693172562846564 -0.0373000263663751 0.01 ) ( 0.707707506500943 -0.0358850906030506 0.01 ) ( 0.722033306302887 -0.0344618899357088 0.01 ) ( 0.736135537386341 -0.0330335277583255 0.01 ) ( 0.75 -0.0316030623051599 0.01 ) ( 0.763612733805251 -0.0301735107838279 0.01 ) ( 0.776960031933055 -0.0287478536318876 0.01 ) ( 0.790028454785599 -0.0273290387064593 0.01 ) ( 0.802804843568833 -0.0259199852230592 0.01 ) ( 0.815276333542261 -0.0245235872697858 0.01 ) ( 0.827430366972642 -0.0231427167360333 0.01 ) ( 0.839254705778566 -0.021780225510745 0.01 ) ( 0.850737443853161 -0.0204389468235492 0.01 ) ( 0.861867019052535 -0.0191216956225793 0.01 ) ( 0.872632224837877 -0.0178312679049799 0.01 ) ( 0.883022221559489 -0.0165704389396342 0.01 ) ( 0.893026547371394 -0.0153419603460673 0.01 ) ( 0.902635128765529 -0.0141485560183505 0.01 ) ( 0.911838290714916 -0.0129929169076981 0.01 ) ( 0.920626766415591 -0.0118776947018717 0.01 ) ( 0.928991706617489 -0.0108054944630368 0.01 ) ( 0.936924688534893 -0.00977886630796174 0.01 ) ( 0.944417724327462 -0.00880029623499735 0.01 ) ( 0.951463269143311 -0.00787219622078358 0.01 ) ( 0.958054228716035 -0.00699689372576935 0.01 ) ( 0.964183966508036 -0.00617662076113382 0.01 ) ( 0.969846310392954 -0.00541350268033142 0.01 ) ( 0.975035558870473 -0.00470954686606914 0.01 ) ( 0.979746486807249 -0.00406663148794822 0.01 ) ( 0.983974350698178 -0.00348649450719186 0.01 ) ( 0.987714893442704 -0.0029707231028305 0.01 ) ( 0.990964348631353 -0.00252074368847853 0.01 ) ( 0.993719444338197 -0.00213781268050308 0.01 ) ( 0.995977406415398 -0.00182300816714355 0.01 ) ( 0.997735961286542 -0.0015772226141603 0.01 ) ( 0.998993338235942 -0.00140115672617253 0.01 ) ( 0.999748271191593 -0.00129531456426009 0.01 ))
         
      
    spline 20 21 
             (( 0.000251728808407459 0.00280731873435275 0.01 ) ( 0.00100666176405778 0.00557569683783854 0.01 ) ( 0.00226403871345771 0.00830400178230542 0.01 ) ( 0.00402259358460233 0.0109908264614087 0.01 ) ( 0.00628055566180286 0.0136344980737385 0.01 ) ( 0.00903565136864665 0.0162330903349045 0.01 ) ( 0.0122851065572965 0.0187844388685296 0.01 ) ( 0.0160256493018219 0.0212861595868385 0.01 ) ( 0.0202535131927513 0.0237356698349058 0.01 ) ( 0.0249644411295273 0.0261302120391248 0.01 ) ( 0.0301536896070458 0.0284668795705562 0.01 ) ( 0.0358160334919637 0.0307426445078949 0.01 ) ( 0.0419457712839652 0.0329543869632183 0.01 ) ( 0.0485367308566894 0.0350989256167161 0.01 ) ( 0.0555822756725383 0.0371730490944749 0.01 ) ( 0.0630753114651075 0.0391735478162298 0.01 ) ( 0.0710082933825115 0.0410972459378822 0.01 ) ( 0.0793732335844094 0.0429410330165016 0.01 ) ( 0.0881617092850836 0.044701895033407 0.01 ) ( 0.0973648712344707 0.0463769444236124 0.01 ) ( 0.106973452628606 0.0479634487771926 0.01 ) ( 0.116977778440511 0.0494588578997109 0.01 ) ( 0.127367775162123 0.0508608289443815 0.01 ) ( 0.138132980947465 0.0521672493577403 0.01 ) ( 0.149262556146839 0.0533762574127946 0.01 ) ( 0.160745294221434 0.0544862601384377 0.01 ) ( 0.172569633027358 0.0554959484908123 0.01 ) ( 0.184723666457739 0.0564043096507431 0.01 ) ( 0.197195156431167 0.0572106363707474 0.01 ) ( 0.209971545214401 0.057914533334908 0.01 ) ( 0.223039968066945 0.0585159205344701 0.01 ) ( 0.236387266194749 0.0590150337008218 0.01 ) ( 0.25 0.059412421875 0.01 ) ( 0.263864462613659 0.0597089422284833 0.01 ) ( 0.277966693697113 0.0599057522833081 0.01 ) ( 0.292292493499057 0.0600042997100145 0.01 ))
         
      
    spline 21 23 
             (( 0.321556889204064 0.0599137716060419 0.01 ) ( 0.336466018341289 0.0597289207073764 0.01 ) ( 0.351539812335863 0.0594542226858829 0.01 ) ( 0.366763093154983 0.0590923537683784 0.01 ) ( 0.382120532245286 0.0586461812115737 0.01 ) ( 0.397596665967405 0.0581187429517579 0.01 ) ( 0.413175911166535 0.0575132269131471 0.01 ) ( 0.428842580863357 0.0568329502537649 0.01 ) ( 0.444580900049494 0.0560813388177656 0.01 ) ( 0.460375021571606 0.0552619070492937 0.01 ) ( 0.476209042088129 0.054378238605591 0.01 ) ( 0.492067018082596 0.0534339678864513 0.01 ) ( 0.507932981917404 0.052432762673668 0.01 ) ( 0.523790957911871 0.0513783080482479 0.01 ) ( 0.539624978428394 0.0502742917253289 0.01 ) ( 0.555419099950506 0.0491243909174293 0.01 ) ( 0.571157419136643 0.0479322608063655 0.01 ) ( 0.586824088833465 0.0467015246734131 0.01 ) ( 0.602403334032595 0.0454357657065648 0.01 ) ( 0.617879467754714 0.0441385204735576 0.01 ) ( 0.633236906845018 0.0428132740201832 0.01 ) ( 0.648460187664137 0.0414634565257277 0.01 ) ( 0.663533981658711 0.0400924414216414 0.01 ) ( 0.678443110795936 0.0387035448561031 0.01 ) ( 0.693172562846564 0.0373000263663751 0.01 ) ( 0.707707506500943 0.0358850906030506 0.01 ) ( 0.722033306302887 0.0344618899357088 0.01 ) ( 0.736135537386341 0.0330335277583255 0.01 ) ( 0.75 0.0316030623051599 0.01 ) ( 0.763612733805251 0.0301735107838279 0.01 ) ( 0.776960031933055 0.0287478536318876 0.01 ) ( 0.790028454785599 0.0273290387064593 0.01 ) ( 0.802804843568833 0.0259199852230592 0.01 ) ( 0.815276333542261 0.0245235872697858 0.01 ) ( 0.827430366972642 0.0231427167360333 0.01 ) ( 0.839254705778566 0.021780225510745 0.01 ) ( 0.850737443853161 0.0204389468235492 0.01 ) ( 0.861867019052535 0.0191216956225793 0.01 ) ( 0.872632224837877 0.0178312679049799 0.01 ) ( 0.883022221559489 0.0165704389396342 0.01 ) ( 0.893026547371394 0.0153419603460673 0.01 ) ( 0.902635128765529 0.0141485560183505 0.01 ) ( 0.911838290714916 0.0129929169076981 0.01 ) ( 0.920626766415591 0.0118776947018717 0.01 ) ( 0.928991706617489 0.0108054944630368 0.01 ) ( 0.936924688534893 0.00977886630796174 0.01 ) ( 0.944417724327462 0.00880029623499735 0.01 ) ( 0.951463269143311 0.00787219622078358 0.01 ) ( 0.958054228716035 0.00699689372576935 0.01 ) ( 0.964183966508036 0.00617662076113382 0.01 ) ( 0.969846310392954 0.00541350268033142 0.01 ) ( 0.975035558870473 0.00470954686606914 0.01 ) ( 0.979746486807249 0.00406663148794822 0.01 ) ( 0.983974350698178 0.00348649450719186 0.01 ) ( 0.987714893442704 0.0029707231028305 0.01 ) ( 0.990964348631353 0.00252074368847853 0.01 ) ( 0.993719444338197 0.00213781268050308 0.01 ) ( 0.995977406415398 0.00182300816714355 0.01 ) ( 0.997735961286542 0.0015772226141603 0.01 ) ( 0.998993338235942 0.00140115672617253 0.01 ) ( 0.999748271191593 0.00129531456426009 0.01 ))
         
      
    
);

patches
(
    wall airfoil
    (
        (8 10 22 20)
        (10 11 23 22)
        (8 9 21 20)
        (9 11 23 21)
    )
    
    patch farBoundaries
    (
        (6 7 19 18)
        (5 6 18 17)
        (2 3 15 14)
        (1 2 14 13)
    )
    
    patch inlet
    (
        (7 0 12 19)
        (0 1 13 12)
    )
    
    patch outlet
    (
        (4 5 17 16)
        (3 4 16 15)
    )
);

mergePatchPairs
(
);
/*--------------------------------*- C++ -*----------------------------------*\
| =========                 |                                                 |
| \\      /  F ield         | OpenFOAM: The Open Source CFD Toolbox           |
|  \\    /   O peration     |                                                 |
|   \\  /    A nd           | Copyright (C) 2018 Ehsan Madadi-Kandjani        |
|    \\/     M anipulation  |                                                 |
\*---------------------------------------------------------------------------*/
FoamFile
{
    version     2.0;
    format    ascii;
    class       dictionary;
    object      blockMeshDict;
}
// * * * * * * * * * * * * * * * * * * * * * * * * * * * * * * * * * * * * * //











// Returns a zero array


// Returns a zero array with commas in the middle of it


// Returns a linear  array with commas (initial point, last point, number of segments, c)

  
// Returns a y_t with commas (arrayX, number of segments, t, c)


// Returns a y_c with commas (arrayX, number of segments, m, p, c)


// Returns a theta with commas (arrayX, number of segments, m, p, c)

      
// Returns a xu with commas (arrayX, arrayYt, arrayTheta, number of segments)


// Returns a yu with commas (arrayYc, arrayYt, arrayTheta, number of segments)

      
// Returns a xl with commas (arrayX, arrayYt, arrayTheta, number of segments)


// Returns a yl with commas (arrayYc, arrayYt, arrayTheta, number of segments)

      
// Include angle of attack (arrayXu, arrayYu, alpha, number of segments)

      

      
// Include angle of attack (arrayXl, arrayYl, alpha, number of segments)

      

      
// Xu with comma to obtain Cmax (arrayXu, arrayYu, alpha, number of segments)



      
// Include angle of attack (arrayXl, arrayYl, alpha, number of segments)

      

      
// Returns the index of maximum array (Yc, Yt, p, number of segments)

      

      


      
// * * * * * * * * * * * * * * * * * * * * * * * * * * * * * * * * * * * * * //

convertToMeters 1.0;

//NACA airfoil geometry

//Chord length


//Angle of attack (in radian)


//NACA digits





//Mesh

//Height of mesh in y direction


//Length of downstream


//Foil depth in z direction perpendicular to x-y surface


//Scale factor (the mesh is normalized to have chord length equal to one)


//Number of cells and points at each direction and element

//Number of cells in y direction


//Number of cells in downstream


//Number of cells in z direction


//Number of meshes on the front part of airfoil edges p8-p9 and p8-p10b


//Number of meshes on the back part of airfoil edges p9-p11 and p10-p11


//Number of interpolation points along the airfoil for defining the splines


//Cell expansion ratios

//Expansion ratio in y above


//Expansion ratio in y below


//Expansion ratio in x direction behind airfoil


// Base z


// Depth of airfoil


// Front z


// m,p, and t values for the airfoil




// Calculate x array


// Calculate yt array


// Calculate camber


// Calculate theta


// Calculate upper surface x components


// Calculate upper surface y components


// Calculate lower surface x components


// Calculate lower surface y components







// define Cmax


// Move the airfoil





























//Define the points for the inlet arc allocation


















// * * * * * * * * * * * * * * * * * * * * * * * * * * * * * * * * * * * * * //



// * * * * * * * * * * * * * * * * * * * * * * * * * * * * * * * * * * * * * //

vertices
(
    (-1.69317256284656 0 0) // Vertex p00b = 0 
    (0.306827437153436 -2 0) // Vertex p01b = 1 
    (1 -2 0) // Vertex p02b = 2 
    (3 -2 0) // Vertex p03b = 3 
    (3 -0.00125999999999998 0) // Vertex p04b = 4 
    (3 2 0) // Vertex p05b = 5 
    (1 2 0) // Vertex p06b = 6 
    (0.306827437153436 2 0) // Vertex p07b = 7 
    (0 0 0) // Vertex p08b = 8 
    (0.306827437153436 0.0600063099091861 0) // Vertex p09b = 9 
    (0.306827437153436 -0.0600063099091861 0) // Vertex p10b = 10 
    (1 -0.00125999999999998 0) // Vertex p11b = 11 
    
    (-1.69317256284656 0 0.01) // Vertex p00t = 12 
    (0.306827437153436 -2 0.01) // Vertex p01t = 13 
    (1 -2 0.01) // Vertex p02t = 14 
    (3 -2 0.01) // Vertex p03t = 15 
    (3 -0.00125999999999998 0.01) // Vertex p04t = 16 
    (3 2 0.01) // Vertex p05t = 17 
    (1 2 0.01) // Vertex p06t = 18 
    (0.306827437153436 2 0.01) // Vertex p07t = 19 
    (0 0 0.01) // Vertex p08t = 20 
    (0.306827437153436 0.0600063099091861 0.01) // Vertex p09t = 21 
    (0.306827437153436 -0.0600063099091861 0.01) // Vertex p10t = 22 
    (1 -0.00125999999999998 0.01) // Vertex p11t = 23 
);

blocks
(
    //B0
    hex (0 1 10 8 12 13 22 20)
    square
    (60 250 1)
    simpleGrading (1 0.01 1)
    
    //B1
    hex (1 2 11 10 13 14 23 22)
    square
    (40 250 1)
    simpleGrading (1 0.01 1)
    
    //B2
    hex (2 3 4 11 14 15 16 23)
    square
    (24 250 1)
    simpleGrading (100 0.01 1)
    
    //B3
    hex (11 4 5 6 23 16 17 18)
    square
    (24 250 1)
    simpleGrading (100 100 1)
    
    //B4
    hex (9 11 6 7 21 23 18 19)
    square
    (40 250 1)
    simpleGrading (1 100 1)
    
    //B5
    hex (8 9 7 0 20 21 19 12)
    square
    (60 250 1)
    simpleGrading (1 100 1)
);

edges
(
    //Inlet arc
    arc 0 7 (-1.10738612521966 1.41421356237309 0)
    arc 0 1 (-1.10738612521966 -1.41421356237309 0)
